%chk=geometry.chk
%mem=10GB
%nprocshared=36

#p PBE1PBE/6-31G* opt

Title Card Required

0 1
C         -1.21310       -0.68840        0.00000
C         -1.20280        0.70640        0.00010
C         -0.01030       -1.39480        0.00000
C          0.01040        1.39480       -0.00010
C          1.20280       -0.70630        0.00000
C          1.21310        0.68840        0.00000
H         -2.15770       -1.22440        0.00000
H         -2.13930        1.25640        0.00010
H         -0.01840       -2.48090       -0.00010
H          0.01840        2.48080        0.00000
H          2.13940       -1.25630        0.00010
H          2.15770        1.22450        0.00000
C         -1.18990       -0.69053        3.30000
C         -1.17960        0.70427        3.30000
C          0.01290       -1.39693        3.30000
C          0.03360        1.39267        3.30000
C          1.22600       -0.70843        3.30000
C          1.23630        0.68627        3.30000
H         -2.13450       -1.22653        3.30000
H         -2.11610        1.25427        3.30000
H          0.00480       -2.48303        3.30000
H          0.04160        2.47867        3.30000
H          2.16260       -1.25843        3.30000
H          2.18090        1.22237        3.30000

Benzene0x(Freeze)=XCntr(1-12)
Benzene0y(Freeze)=YCntr(1-12)
Benzene0z(Freeze)=ZCntr(1-12)
Benzene0x(Freeze)=XCntr(13-24)
Benzene0y(Freeze)=YCntr(13-24)
Benzene0z(Freeze)=ZCntr(13-24)




